LTspice 24.0.9 for Windows
Circuit: * C:\Users\arous\Bureau\APP4\Problematique\add3b_test_trans.asc
Start Time: Wed Mar 20 00:03:21 2024
solver = Normal
Maximum thread count: 16
tnom = 27
temp = 27
method = modified trap
Direct Newton iteration for .op point succeeded.
Total elapsed time: 0.303 seconds.

