LTspice 24.0.9 for Windows
Circuit: * C:\Users\arous\Bureau\APP4\Problematique\alu_test_trans - Copy.asc
Start Time: Tue Mar 19 23:31:29 2024
solver = Normal
Maximum thread count: 16
tnom = 27
temp = 27
method = modified trap
WARNING: Less than two connections to node sel.  This node is used by vsel.
Direct Newton iteration for .op point succeeded.
Total elapsed time: 0.336 seconds.

