LTspice 24.0.9 for Windows
Circuit: * C:\Users\arous\Bureau\APP4\Problematique\mux2x3b_test.asc
Start Time: Tue Mar 19 10:23:05 2024
solver = Normal
Maximum thread count: 16
tnom = 27
temp = 27
method = modified trap
Direct Newton iteration for .op point succeeded.
Total elapsed time: 0.146 seconds.

