LTspice 24.0.9 for Windows
Circuit: * C:\Users\arous\Bureau\APP4\Problematique\nor_test.asc
Start Time: Tue Mar 19 10:02:14 2024
solver = Normal
Maximum thread count: 16
tnom = 27
temp = 27
method = modified trap
Direct Newton iteration for .op point succeeded.

t1: time=4.01667e-09 at 4.01667e-09
t2: time=4.10909e-09 at 4.10909e-09
t3: time=1.09869e-09 at 1.09869e-09
t4: time=1.01877e-09 at 1.01877e-09
transition_up: abs(t2-t1)=9.24134e-11
transition_down: abs(t4-t3)=7.99251e-11

Measurement "ratio" FAIL'ed

Total elapsed time: 0.107 seconds.

