LTspice 24.0.9 for Windows
Circuit: * C:\Users\arous\Bureau\APP4\Problematique\xor_test.asc
Start Time: Tue Mar 19 10:02:23 2024
solver = Normal
Maximum thread count: 16
tnom = 27
temp = 27
method = modified trap
Direct Newton iteration for .op point succeeded.

t1: time=1.04668e-09 at 1.04668e-09
t2: time=1.17677e-09 at 1.17677e-09
t3: time=2.12498e-09 at 2.12498e-09
t4: time=2.01392e-09 at 2.01392e-09
transition_up: abs(t2-t1)=1.30092e-10
transition_down: abs(t4-t3)=1.11061e-10

Measurement "ratio" FAIL'ed

Total elapsed time: 0.151 seconds.

