LTspice 24.0.9 for Windows
Circuit: * C:\Users\arous\Bureau\APP4\Problematique\xor_test.asc
Start Time: Sun Mar 17 18:19:37 2024
Questionable use of curly braces in "m1 _q in vss vss nmos l={ll} w={wn} ad={450n*{wn}} as={450n*{wn}} pd={900n+{wn}} ps={1080n+{wn}}"
    Error: undefined symbol in: "[ll]"
Questionable use of curly braces in "m1 _q in vss vss nmos l=(ll) w={wn} ad={450n*{wn}} as={450n*{wn}} pd={900n+{wn}} ps={1080n+{wn}}"
    Error: undefined symbol in: "[wn]"
Questionable use of curly braces in "m1 _q in vss vss nmos l=(ll) w=(wn) ad={450n*{wn}} as={450n*{wn}} pd={900n+{wn}} ps={1080n+{wn}}"
    Error: undefined symbol in: "450n*([wn])"
Questionable use of curly braces in "m1 _q in vss vss nmos l=(ll) w=(wn) ad=(450n*{wn}) as={450n*{wn}} pd={900n+{wn}} ps={1080n+{wn}}"
    Error: undefined symbol in: "[wn]"
Questionable use of curly braces in "m1 _q in vss vss nmos l=(ll) w=(wn) ad=(450n*(wn)) as={450n*{wn}} pd={900n+{wn}} ps={1080n+{wn}}"
    Error: undefined symbol in: "450n*([wn])"
Questionable use of curly braces in "m1 _q in vss vss nmos l=(ll) w=(wn) ad=(450n*(wn)) as=(450n*{wn}) pd={900n+{wn}} ps={1080n+{wn}}"
    Error: undefined symbol in: "[wn]"
Questionable use of curly braces in "m1 _q in vss vss nmos l=(ll) w=(wn) ad=(450n*(wn)) as=(450n*(wn)) pd={900n+{wn}} ps={1080n+{wn}}"
    Error: undefined symbol in: "900n+([wn])"
Questionable use of curly braces in "m1 _q in vss vss nmos l=(ll) w=(wn) ad=(450n*(wn)) as=(450n*(wn)) pd=(900n+{wn}) ps={1080n+{wn}}"
    Error: undefined symbol in: "[wn]"
Questionable use of curly braces in "m1 _q in vss vss nmos l=(ll) w=(wn) ad=(450n*(wn)) as=(450n*(wn)) pd=(900n+(wn)) ps={1080n+{wn}}"
    Error: undefined symbol in: "1080n+([wn])"
Questionable use of curly braces in "m1 _q in vss vss nmos l=(ll) w=(wn) ad=(450n*(wn)) as=(450n*(wn)) pd=(900n+(wn)) ps=(1080n+{wn})"
    Error: undefined symbol in: "[wn]"
Questionable use of curly braces in "m2 vdd in _q vdd pmos l={ll} w={wp} ad={450n*{wp}} as={450n*{wp}} pd={900n+{wp}} ps={1080n+{wp}}"
    Error: undefined symbol in: "[ll]"
Questionable use of curly braces in "m2 vdd in _q vdd pmos l=(ll) w={wp} ad={450n*{wp}} as={450n*{wp}} pd={900n+{wp}} ps={1080n+{wp}}"
    Error: undefined symbol in: "[wp]"
Questionable use of curly braces in "m2 vdd in _q vdd pmos l=(ll) w=(wp) ad={450n*{wp}} as={450n*{wp}} pd={900n+{wp}} ps={1080n+{wp}}"
    Error: undefined symbol in: "450n*([wp])"
Questionable use of curly braces in "m2 vdd in _q vdd pmos l=(ll) w=(wp) ad=(450n*{wp}) as={450n*{wp}} pd={900n+{wp}} ps={1080n+{wp}}"
    Error: undefined symbol in: "[wp]"
Questionable use of curly braces in "m2 vdd in _q vdd pmos l=(ll) w=(wp) ad=(450n*(wp)) as={450n*{wp}} pd={900n+{wp}} ps={1080n+{wp}}"
    Error: undefined symbol in: "450n*([wp])"
Questionable use of curly braces in "m2 vdd in _q vdd pmos l=(ll) w=(wp) ad=(450n*(wp)) as=(450n*{wp}) pd={900n+{wp}} ps={1080n+{wp}}"
    Error: undefined symbol in: "[wp]"
Questionable use of curly braces in "m2 vdd in _q vdd pmos l=(ll) w=(wp) ad=(450n*(wp)) as=(450n*(wp)) pd={900n+{wp}} ps={1080n+{wp}}"
    Error: undefined symbol in: "900n+([wp])"
Questionable use of curly braces in "m2 vdd in _q vdd pmos l=(ll) w=(wp) ad=(450n*(wp)) as=(450n*(wp)) pd=(900n+{wp}) ps={1080n+{wp}}"
    Error: undefined symbol in: "[wp]"
Questionable use of curly braces in "m2 vdd in _q vdd pmos l=(ll) w=(wp) ad=(450n*(wp)) as=(450n*(wp)) pd=(900n+(wp)) ps={1080n+{wp}}"
    Error: undefined symbol in: "1080n+([wp])"
Questionable use of curly braces in "m2 vdd in _q vdd pmos l=(ll) w=(wp) ad=(450n*(wp)) as=(450n*(wp)) pd=(900n+(wp)) ps=(1080n+{wp})"
    Error: undefined symbol in: "[wp]"
Questionable use of curly braces in "m1 _q in vss vss nmos l={ll} w={wn} ad={450n*{wn}} as={450n*{wn}} pd={900n+{wn}} ps={1080n+{wn}}"
    Error: undefined symbol in: "[ll]"
Questionable use of curly braces in "m1 _q in vss vss nmos l=(ll) w={wn} ad={450n*{wn}} as={450n*{wn}} pd={900n+{wn}} ps={1080n+{wn}}"
    Error: undefined symbol in: "[wn]"
Questionable use of curly braces in "m1 _q in vss vss nmos l=(ll) w=(wn) ad={450n*{wn}} as={450n*{wn}} pd={900n+{wn}} ps={1080n+{wn}}"
    Error: undefined symbol in: "450n*([wn])"
Questionable use of curly braces in "m1 _q in vss vss nmos l=(ll) w=(wn) ad=(450n*{wn}) as={450n*{wn}} pd={900n+{wn}} ps={1080n+{wn}}"
    Error: undefined symbol in: "[wn]"
Questionable use of curly braces in "m1 _q in vss vss nmos l=(ll) w=(wn) ad=(450n*(wn)) as={450n*{wn}} pd={900n+{wn}} ps={1080n+{wn}}"
    Error: undefined symbol in: "450n*([wn])"
Questionable use of curly braces in "m1 _q in vss vss nmos l=(ll) w=(wn) ad=(450n*(wn)) as=(450n*{wn}) pd={900n+{wn}} ps={1080n+{wn}}"
    Error: undefined symbol in: "[wn]"
Questionable use of curly braces in "m1 _q in vss vss nmos l=(ll) w=(wn) ad=(450n*(wn)) as=(450n*(wn)) pd={900n+{wn}} ps={1080n+{wn}}"
    Error: undefined symbol in: "900n+([wn])"
Questionable use of curly braces in "m1 _q in vss vss nmos l=(ll) w=(wn) ad=(450n*(wn)) as=(450n*(wn)) pd=(900n+{wn}) ps={1080n+{wn}}"
    Error: undefined symbol in: "[wn]"
Questionable use of curly braces in "m1 _q in vss vss nmos l=(ll) w=(wn) ad=(450n*(wn)) as=(450n*(wn)) pd=(900n+(wn)) ps={1080n+{wn}}"
    Error: undefined symbol in: "1080n+([wn])"
Questionable use of curly braces in "m1 _q in vss vss nmos l=(ll) w=(wn) ad=(450n*(wn)) as=(450n*(wn)) pd=(900n+(wn)) ps=(1080n+{wn})"
    Error: undefined symbol in: "[wn]"
Questionable use of curly braces in "m2 vdd in _q vdd pmos l={ll} w={wp} ad={450n*{wp}} as={450n*{wp}} pd={900n+{wp}} ps={1080n+{wp}}"
    Error: undefined symbol in: "[ll]"
Questionable use of curly braces in "m2 vdd in _q vdd pmos l=(ll) w={wp} ad={450n*{wp}} as={450n*{wp}} pd={900n+{wp}} ps={1080n+{wp}}"
    Error: undefined symbol in: "[wp]"
Questionable use of curly braces in "m2 vdd in _q vdd pmos l=(ll) w=(wp) ad={450n*{wp}} as={450n*{wp}} pd={900n+{wp}} ps={1080n+{wp}}"
    Error: undefined symbol in: "450n*([wp])"
Questionable use of curly braces in "m2 vdd in _q vdd pmos l=(ll) w=(wp) ad=(450n*{wp}) as={450n*{wp}} pd={900n+{wp}} ps={1080n+{wp}}"
    Error: undefined symbol in: "[wp]"
Questionable use of curly braces in "m2 vdd in _q vdd pmos l=(ll) w=(wp) ad=(450n*(wp)) as={450n*{wp}} pd={900n+{wp}} ps={1080n+{wp}}"
    Error: undefined symbol in: "450n*([wp])"
Questionable use of curly braces in "m2 vdd in _q vdd pmos l=(ll) w=(wp) ad=(450n*(wp)) as=(450n*{wp}) pd={900n+{wp}} ps={1080n+{wp}}"
    Error: undefined symbol in: "[wp]"
Questionable use of curly braces in "m2 vdd in _q vdd pmos l=(ll) w=(wp) ad=(450n*(wp)) as=(450n*(wp)) pd={900n+{wp}} ps={1080n+{wp}}"
    Error: undefined symbol in: "900n+([wp])"
Questionable use of curly braces in "m2 vdd in _q vdd pmos l=(ll) w=(wp) ad=(450n*(wp)) as=(450n*(wp)) pd=(900n+{wp}) ps={1080n+{wp}}"
    Error: undefined symbol in: "[wp]"
Questionable use of curly braces in "m2 vdd in _q vdd pmos l=(ll) w=(wp) ad=(450n*(wp)) as=(450n*(wp)) pd=(900n+(wp)) ps={1080n+{wp}}"
    Error: undefined symbol in: "1080n+([wp])"
Questionable use of curly braces in "m2 vdd in _q vdd pmos l=(ll) w=(wp) ad=(450n*(wp)) as=(450n*(wp)) pd=(900n+(wp)) ps=(1080n+{wp})"
    Error: undefined symbol in: "[wp]"
Fatal Error: Numerical value expected here: "ll) w=(wn) ad=(450n*(wn)) as=(450n*(wn)) pd=(900n+(wn)) ps=(1080n+(wn))".
